# generated using pymatgen
data_CsCeSiS4
_symmetry_space_group_name_H-M   'P 1'
_cell_length_a   6.53722196
_cell_length_b   6.72329681
_cell_length_c   18.00561078
_cell_angle_alpha   90.00000000
_cell_angle_beta   90.00000000
_cell_angle_gamma   90.00000000
_symmetry_Int_Tables_number   1
_chemical_formula_structural   CsCeSiS4
_chemical_formula_sum   'Cs4 Ce4 Si4 S16'
_cell_volume   791.37690713
_cell_formula_units_Z   4
loop_
 _symmetry_equiv_pos_site_id
 _symmetry_equiv_pos_as_xyz
  1  'x, y, z'
loop_
 _atom_site_type_symbol
 _atom_site_label
 _atom_site_symmetry_multiplicity
 _atom_site_fract_x
 _atom_site_fract_y
 _atom_site_fract_z
 _atom_site_occupancy
  Cs  Cs0  1  0.48917550  0.75000000  0.21712352  1
  Cs  Cs1  1  0.01082450  0.75000000  0.71712352  1
  Cs  Cs2  1  0.51082450  0.25000000  0.78287648  1
  Cs  Cs3  1  0.98917550  0.25000000  0.28287648  1
  Ce  Ce4  1  0.28705868  0.75000000  0.47684211  1
  Ce  Ce5  1  0.21294132  0.75000000  0.97684211  1
  Ce  Ce6  1  0.71294132  0.25000000  0.52315789  1
  Ce  Ce7  1  0.78705868  0.25000000  0.02315789  1
  Si  Si8  1  0.78492447  0.75000000  0.41455254  1
  Si  Si9  1  0.71507553  0.75000000  0.91455254  1
  Si  Si10  1  0.21507553  0.25000000  0.58544746  1
  Si  Si11  1  0.28492447  0.25000000  0.08544746  1
  S  S12  1  0.04255345  0.75000000  0.34467659  1
  S  S13  1  0.45744655  0.75000000  0.84467659  1
  S  S14  1  0.95744655  0.25000000  0.65532341  1
  S  S15  1  0.54255345  0.25000000  0.15532341  1
  S  S16  1  0.62822360  0.75000000  0.02837847  1
  S  S17  1  0.87177640  0.75000000  0.52837847  1
  S  S18  1  0.37177640  0.25000000  0.97162153  1
  S  S19  1  0.12822360  0.25000000  0.47162153  1
  S  S20  1  0.59040103  0.50139495  0.39689438  1
  S  S21  1  0.90959897  -0.00139495  0.89689438  1
  S  S22  1  0.40959897  0.00139495  0.60310562  1
  S  S23  1  0.09040103  0.49860505  0.10310562  1
  S  S24  1  0.40959897  0.49860505  0.60310562  1
  S  S25  1  0.09040103  0.00139495  0.10310562  1
  S  S26  1  0.59040103  -0.00139495  0.39689438  1
  S  S27  1  0.90959897  0.50139495  0.89689438  1
