# generated using pymatgen
data_CsEuSiS4
_symmetry_space_group_name_H-M   'P 1'
_cell_length_a   6.55888637
_cell_length_b   6.85805781
_cell_length_c   17.79744618
_cell_angle_alpha   90.00000000
_cell_angle_beta   90.00000000
_cell_angle_gamma   90.00000000
_symmetry_Int_Tables_number   1
_chemical_formula_structural   CsEuSiS4
_chemical_formula_sum   'Cs4 Eu4 Si4 S16'
_cell_volume   800.55087578
_cell_formula_units_Z   4
loop_
 _symmetry_equiv_pos_site_id
 _symmetry_equiv_pos_as_xyz
  1  'x, y, z'
loop_
 _atom_site_type_symbol
 _atom_site_label
 _atom_site_symmetry_multiplicity
 _atom_site_fract_x
 _atom_site_fract_y
 _atom_site_fract_z
 _atom_site_occupancy
  Cs  Cs0  1  0.48895840  0.49242959  0.96699665  1
  Cs  Cs1  1  0.01104160  0.50757041  0.46699665  1
  Cs  Cs2  1  0.98895840  0.00757041  0.03300335  1
  Cs  Cs3  1  0.51104160  0.99242959  0.53300335  1
  Eu  Eu4  1  0.28784423  0.46786878  0.22525226  1
  Eu  Eu5  1  0.21215577  0.53213122  0.72525226  1
  Eu  Eu6  1  0.78784423  0.03213122  0.77474774  1
  Eu  Eu7  1  0.71215577  0.96786878  0.27474774  1
  Si  Si8  1  0.78484122  0.51839463  0.16535853  1
  Si  Si9  1  0.71515878  0.48160537  0.66535853  1
  Si  Si10  1  0.28484122  0.98160537  0.83464147  1
  Si  Si11  1  0.21515878  0.01839463  0.33464147  1
  S  S12  1  0.03891503  0.51520602  0.09321263  1
  S  S13  1  0.46108497  0.48479398  0.59321263  1
  S  S14  1  0.53891503  0.98479398  0.90678737  1
  S  S15  1  0.96108497  0.01520602  0.40678737  1
  S  S16  1  0.61067048  0.42873392  0.77648031  1
  S  S17  1  0.88932952  0.57126608  0.27648031  1
  S  S18  1  0.11067048  0.07126608  0.22351969  1
  S  S19  1  0.38932952  0.92873392  0.72351969  1
  S  S20  1  0.56988086  0.74345518  0.14418183  1
  S  S21  1  0.93011914  0.25654482  0.64418183  1
  S  S22  1  0.06988086  0.75654482  0.85581817  1
  S  S23  1  0.43011914  0.24345518  0.35581817  1
  S  S24  1  0.61531573  0.25545550  0.15532122  1
  S  S25  1  0.88468427  0.74454450  0.65532122  1
  S  S26  1  0.11531573  0.24454450  0.84467878  1
  S  S27  1  0.38468427  0.75545550  0.34467878  1
