# generated using pymatgen
data_Rb2Pu(Cl2O)2
_symmetry_space_group_name_H-M   'P 1'
_cell_length_a   5.58177427
_cell_length_b   6.90073382
_cell_length_c   6.90073382
_cell_angle_alpha   66.38707501
_cell_angle_beta   85.38625186
_cell_angle_gamma   85.38625186
_symmetry_Int_Tables_number   1
_chemical_formula_structural   Rb2Pu(Cl2O)2
_chemical_formula_sum   'Rb2 Pu1 Cl4 O2'
_cell_volume   242.42184010
_cell_formula_units_Z   1
loop_
 _symmetry_equiv_pos_site_id
 _symmetry_equiv_pos_as_xyz
  1  'x, y, z'
loop_
 _atom_site_type_symbol
 _atom_site_label
 _atom_site_symmetry_multiplicity
 _atom_site_fract_x
 _atom_site_fract_y
 _atom_site_fract_z
 _atom_site_occupancy
  Rb  Rb0  1  0.79235321  0.84159585  0.84159585  1
  Rb  Rb1  1  0.20764679  0.15840415  0.15840415  1
  Pu  Pu2  1  0.50000000  0.50000000  0.50000000  1
  Cl  Cl3  1  0.72041257  0.86332646  0.35063623  1
  Cl  Cl4  1  0.72041257  0.35063623  0.86332646  1
  Cl  Cl5  1  0.27958743  0.13667354  0.64936377  1
  Cl  Cl6  1  0.27958743  0.64936377  0.13667354  1
  O  O7  1  0.72397951  0.38160292  0.38160292  1
  O  O8  1  0.27602049  0.61839708  0.61839708  1
