# generated using pymatgen
data_Cs2BeCl4
_symmetry_space_group_name_H-M   'P 1'
_cell_length_a   7.20360426
_cell_length_b   9.70882094
_cell_length_c   12.52650730
_cell_angle_alpha   90.00000000
_cell_angle_beta   90.00000000
_cell_angle_gamma   90.00000000
_symmetry_Int_Tables_number   1
_chemical_formula_structural   Cs2BeCl4
_chemical_formula_sum   'Cs8 Be4 Cl16'
_cell_volume   876.08517944
_cell_formula_units_Z   4
loop_
 _symmetry_equiv_pos_site_id
 _symmetry_equiv_pos_as_xyz
  1  'x, y, z'
loop_
 _atom_site_type_symbol
 _atom_site_label
 _atom_site_symmetry_multiplicity
 _atom_site_fract_x
 _atom_site_fract_y
 _atom_site_fract_z
 _atom_site_occupancy
  Cs  Cs0  1  0.25000000  0.14853985  0.60210697  1
  Cs  Cs1  1  0.25000000  0.64853985  0.89789303  1
  Cs  Cs2  1  0.75000000  0.85146015  0.39789303  1
  Cs  Cs3  1  0.75000000  0.35146015  0.10210697  1
  Cs  Cs4  1  0.25000000  0.47597521  0.32395989  1
  Cs  Cs5  1  0.25000000  0.97597521  0.17604011  1
  Cs  Cs6  1  0.75000000  0.52402479  0.67604011  1
  Cs  Cs7  1  0.75000000  0.02402479  0.82395989  1
  Be  Be8  1  0.25000000  0.24229823  0.91859517  1
  Be  Be9  1  0.25000000  0.74229823  0.58140483  1
  Be  Be10  1  0.75000000  0.75770177  0.08140483  1
  Be  Be11  1  0.75000000  0.25770177  0.41859517  1
  Cl  Cl12  1  0.25000000  0.53437091  0.59971426  1
  Cl  Cl13  1  0.25000000  0.03437091  0.90028574  1
  Cl  Cl14  1  0.75000000  0.46562909  0.40028574  1
  Cl  Cl15  1  0.75000000  0.96562909  0.09971426  1
  Cl  Cl16  1  0.25000000  0.30387452  0.07421164  1
  Cl  Cl17  1  0.25000000  0.80387452  0.42578836  1
  Cl  Cl18  1  0.75000000  0.69612548  0.92578836  1
  Cl  Cl19  1  0.75000000  0.19612548  0.57421164  1
  Cl  Cl20  1  0.98096932  0.67807858  0.15159172  1
  Cl  Cl21  1  0.51903068  0.17807858  0.34840828  1
  Cl  Cl22  1  0.48096932  0.32192142  0.84840828  1
  Cl  Cl23  1  0.01903068  0.82192142  0.65159172  1
  Cl  Cl24  1  0.01903068  0.32192142  0.84840828  1
  Cl  Cl25  1  0.48096932  0.82192142  0.65159172  1
  Cl  Cl26  1  0.51903068  0.67807858  0.15159172  1
  Cl  Cl27  1  0.98096932  0.17807858  0.34840828  1
