# generated using pymatgen
data_Eu(GaSe2)2
_symmetry_space_group_name_H-M   'P 1'
_cell_length_a   12.56551059
_cell_length_b   12.56551059
_cell_length_c   12.69051408
_cell_angle_alpha   105.16456817
_cell_angle_beta   105.16456817
_cell_angle_gamma   118.13889254
_symmetry_Int_Tables_number   1
_chemical_formula_structural   Eu(GaSe2)2
_chemical_formula_sum   'Eu8 Ga16 Se32'
_cell_volume   1520.95908102
_cell_formula_units_Z   8
loop_
 _symmetry_equiv_pos_site_id
 _symmetry_equiv_pos_as_xyz
  1  'x, y, z'
loop_
 _atom_site_type_symbol
 _atom_site_label
 _atom_site_symmetry_multiplicity
 _atom_site_fract_x
 _atom_site_fract_y
 _atom_site_fract_z
 _atom_site_occupancy
  Eu  Eu0  1  0.87307718  0.62307718  0.74615436  1
  Eu  Eu1  1  0.37692282  0.12692282  0.75384564  1
  Eu  Eu2  1  0.12692282  0.37692282  0.25384564  1
  Eu  Eu3  1  0.62307718  0.87307718  0.24615436  1
  Eu  Eu4  1  0.12500000  0.87500000  0.25000000  1
  Eu  Eu5  1  0.87500000  0.12500000  0.75000000  1
  Eu  Eu6  1  0.62500000  0.37500000  0.25000000  1
  Eu  Eu7  1  0.37500000  0.62500000  0.75000000  1
  Ga  Ga8  1  0.13391779  0.61122222  0.99887256  1
  Ga  Ga9  1  0.86495477  0.88765034  0.99887256  1
  Ga  Ga10  1  0.38877778  0.86608221  0.50112744  1
  Ga  Ga11  1  0.11234966  0.13504523  0.50112744  1
  Ga  Ga12  1  0.86608221  0.38877778  0.00112744  1
  Ga  Ga13  1  0.13504523  0.11234966  0.00112744  1
  Ga  Ga14  1  0.61122222  0.13391779  0.49887256  1
  Ga  Ga15  1  0.88765034  0.86495477  0.49887256  1
  Ga  Ga16  1  0.63822734  0.52952671  0.99956670  1
  Ga  Ga17  1  0.36133936  0.97003999  0.99956670  1
  Ga  Ga18  1  0.47047329  0.36177266  0.50043330  1
  Ga  Ga19  1  0.02996001  0.63866064  0.50043330  1
  Ga  Ga20  1  0.36177266  0.47047329  0.00043330  1
  Ga  Ga21  1  0.63866064  0.02996001  0.00043330  1
  Ga  Ga22  1  0.52952671  0.63822734  0.49956670  1
  Ga  Ga23  1  0.97003999  0.36133936  0.49956670  1
  Se  Se24  1  0.65493983  0.34215364  0.49736622  1
  Se  Se25  1  0.84242640  0.65521258  0.49736622  1
  Se  Se26  1  0.65784636  0.34506017  0.00263378  1
  Se  Se27  1  0.34478742  0.15757360  0.00263378  1
  Se  Se28  1  0.34506017  0.65784636  0.50263378  1
  Se  Se29  1  0.15757360  0.34478742  0.50263378  1
  Se  Se30  1  0.34215364  0.65493983  0.99736622  1
  Se  Se31  1  0.65521258  0.84242640  0.99736622  1
  Se  Se32  1  0.15183203  0.81457557  0.99812016  1
  Se  Se33  1  0.84628813  0.68354459  0.99812016  1
  Se  Se34  1  0.18542443  0.84816797  0.50187984  1
  Se  Se35  1  0.31645541  0.15371187  0.50187984  1
  Se  Se36  1  0.84816797  0.18542443  0.00187984  1
  Se  Se37  1  0.15371187  0.31645541  0.00187984  1
  Se  Se38  1  0.81457557  0.15183203  0.49812016  1
  Se  Se39  1  0.68354459  0.84628813  0.49812016  1
  Se  Se40  1  0.91640783  0.91662324  0.33010307  1
  Se  Se41  1  0.41369524  0.91347983  0.33010307  1
  Se  Se42  1  0.08337676  0.08359217  0.16989693  1
  Se  Se43  1  0.08652017  0.58630476  0.16989693  1
  Se  Se44  1  0.08359217  0.08337676  0.66989693  1
  Se  Se45  1  0.58630476  0.08652017  0.66989693  1
  Se  Se46  1  0.91662324  0.91640783  0.83010307  1
  Se  Se47  1  0.91347983  0.41369524  0.83010307  1
  Se  Se48  1  0.08415001  0.58402356  0.67058282  1
  Se  Se49  1  0.58643281  0.58655926  0.67058282  1
  Se  Se50  1  0.41597644  0.91584999  0.82941718  1
  Se  Se51  1  0.41344074  0.41356719  0.82941718  1
  Se  Se52  1  0.91584999  0.41597644  0.32941718  1
  Se  Se53  1  0.41356719  0.41344074  0.32941718  1
  Se  Se54  1  0.58402356  0.08415001  0.17058282  1
  Se  Se55  1  0.58655926  0.58643281  0.17058282  1
