# generated using pymatgen
data_Eu(DySe2)2
_symmetry_space_group_name_H-M   'P 1'
_cell_length_a   4.11498191
_cell_length_b   12.48620530
_cell_length_c   14.86321491
_cell_angle_alpha   90.00000000
_cell_angle_beta   90.00000000
_cell_angle_gamma   90.00000000
_symmetry_Int_Tables_number   1
_chemical_formula_structural   Eu(DySe2)2
_chemical_formula_sum   'Eu4 Dy8 Se16'
_cell_volume   763.67954647
_cell_formula_units_Z   4
loop_
 _symmetry_equiv_pos_site_id
 _symmetry_equiv_pos_as_xyz
  1  'x, y, z'
loop_
 _atom_site_type_symbol
 _atom_site_label
 _atom_site_symmetry_multiplicity
 _atom_site_fract_x
 _atom_site_fract_y
 _atom_site_fract_z
 _atom_site_occupancy
  Eu  Eu0  1  0.25000000  0.75785774  0.33591979  1
  Eu  Eu1  1  0.75000000  0.74214226  0.83591979  1
  Eu  Eu2  1  0.25000000  0.25785774  0.16408021  1
  Eu  Eu3  1  0.75000000  0.24214226  0.66408021  1
  Dy  Dy4  1  0.25000000  0.41798968  0.90150346  1
  Dy  Dy5  1  0.75000000  0.06583104  0.88913166  1
  Dy  Dy6  1  0.75000000  0.58201032  0.09849654  1
  Dy  Dy7  1  0.75000000  0.08201032  0.40150346  1
  Dy  Dy8  1  0.25000000  0.43416896  0.38913166  1
  Dy  Dy9  1  0.25000000  0.91798968  0.59849654  1
  Dy  Dy10  1  0.75000000  0.56583104  0.61086834  1
  Dy  Dy11  1  0.25000000  0.93416896  0.11086834  1
  Se  Se12  1  0.25000000  0.20733214  0.82361153  1
  Se  Se13  1  0.25000000  0.52418426  0.21558900  1
  Se  Se14  1  0.25000000  0.02418426  0.28441100  1
  Se  Se15  1  0.25000000  0.13227828  0.53009985  1
  Se  Se16  1  0.75000000  0.97581574  0.71558900  1
  Se  Se17  1  0.75000000  0.79266786  0.17638847  1
  Se  Se18  1  0.75000000  0.08966024  0.07870234  1
  Se  Se19  1  0.75000000  0.86772172  0.46990015  1
  Se  Se20  1  0.75000000  0.58966024  0.42129766  1
  Se  Se21  1  0.25000000  0.41033976  0.57870234  1
  Se  Se22  1  0.25000000  0.91033976  0.92129766  1
  Se  Se23  1  0.75000000  0.36772172  0.03009985  1
  Se  Se24  1  0.25000000  0.63227828  0.96990015  1
  Se  Se25  1  0.75000000  0.29266786  0.32361153  1
  Se  Se26  1  0.75000000  0.47581574  0.78441100  1
  Se  Se27  1  0.25000000  0.70733214  0.67638847  1
