# generated using pymatgen
data_Ca(BO2)2
_symmetry_space_group_name_H-M   'P 1'
_cell_length_a   5.01739660
_cell_length_b   8.37811462
_cell_length_c   13.81875959
_cell_angle_alpha   90.00000000
_cell_angle_beta   90.00000000
_cell_angle_gamma   90.00000000
_symmetry_Int_Tables_number   1
_chemical_formula_structural   Ca(BO2)2
_chemical_formula_sum   'Ca8 B16 O32'
_cell_volume   580.88985276
_cell_formula_units_Z   8
loop_
 _symmetry_equiv_pos_site_id
 _symmetry_equiv_pos_as_xyz
  1  'x, y, z'
loop_
 _atom_site_type_symbol
 _atom_site_label
 _atom_site_symmetry_multiplicity
 _atom_site_fract_x
 _atom_site_fract_y
 _atom_site_fract_z
 _atom_site_occupancy
  Ca  Ca0  1  0.62002915  0.38375968  0.35673482  1
  Ca  Ca1  1  0.62002915  0.11624032  0.14326518  1
  Ca  Ca2  1  0.87997085  0.88375968  0.64326518  1
  Ca  Ca3  1  0.87997085  0.61624032  0.85673482  1
  Ca  Ca4  1  0.37997085  0.61624032  0.64326518  1
  Ca  Ca5  1  0.37997085  0.88375968  0.85673482  1
  Ca  Ca6  1  0.12002915  0.11624032  0.35673482  1
  Ca  Ca7  1  0.12002915  0.38375968  0.14326518  1
  B  B8  1  0.86991698  0.74547153  0.44938786  1
  B  B9  1  0.86991698  0.75452847  0.05061214  1
  B  B10  1  0.63008302  0.24547153  0.55061214  1
  B  B11  1  0.63008302  0.25452847  0.94938786  1
  B  B12  1  0.13008302  0.25452847  0.55061214  1
  B  B13  1  0.13008302  0.24547153  0.94938786  1
  B  B14  1  0.36991698  0.75452847  0.44938786  1
  B  B15  1  0.36991698  0.74547153  0.05061214  1
  B  B16  1  0.62425678  0.53623177  0.13774677  1
  B  B17  1  0.62425678  0.96376823  0.36225323  1
  B  B18  1  0.87574322  0.03623177  0.86225323  1
  B  B19  1  0.87574322  0.46376823  0.63774677  1
  B  B20  1  0.37574322  0.46376823  0.86225323  1
  B  B21  1  0.37574322  0.03623177  0.63774677  1
  B  B22  1  0.12425678  0.96376823  0.13774677  1
  B  B23  1  0.12425678  0.53623177  0.36225323  1
  O  O24  1  0.35744048  0.88882599  0.11383000  1
  O  O25  1  0.35744048  0.61117401  0.38617000  1
  O  O26  1  0.14255952  0.38882599  0.88617000  1
  O  O27  1  0.14255952  0.11117401  0.61383000  1
  O  O28  1  0.64255952  0.11117401  0.88617000  1
  O  O29  1  0.64255952  0.38882599  0.61383000  1
  O  O30  1  0.85744048  0.61117401  0.11383000  1
  O  O31  1  0.85744048  0.88882599  0.38617000  1
  O  O32  1  0.62801223  0.39422864  0.18603526  1
  O  O33  1  0.62801223  0.10577136  0.31396474  1
  O  O34  1  0.87198777  0.89422864  0.81396474  1
  O  O35  1  0.87198777  0.60577136  0.68603526  1
  O  O36  1  0.37198777  0.60577136  0.81396474  1
  O  O37  1  0.37198777  0.89422864  0.68603526  1
  O  O38  1  0.12801223  0.10577136  0.18603526  1
  O  O39  1  0.12801223  0.39422864  0.31396474  1
  O  O40  1  0.12035538  0.74150788  0.99126864  1
  O  O41  1  0.12035538  0.75849212  0.50873136  1
  O  O42  1  0.37964462  0.24150788  0.00873136  1
  O  O43  1  0.37964462  0.25849212  0.49126864  1
  O  O44  1  0.87964462  0.25849212  0.00873136  1
  O  O45  1  0.87964462  0.24150788  0.49126864  1
  O  O46  1  0.62035538  0.75849212  0.99126864  1
  O  O47  1  0.62035538  0.74150788  0.50873136  1
  O  O48  1  0.38578270  0.60054763  0.10959945  1
  O  O49  1  0.38578270  0.89945237  0.39040055  1
  O  O50  1  0.11421730  0.10054763  0.89040055  1
  O  O51  1  0.11421730  0.39945237  0.60959945  1
  O  O52  1  0.61421730  0.39945237  0.89040055  1
  O  O53  1  0.61421730  0.10054763  0.60959945  1
  O  O54  1  0.88578270  0.89945237  0.10959945  1
  O  O55  1  0.88578270  0.60054763  0.39040055  1
