# generated using pymatgen
data_Sn3Ir2Se3
_symmetry_space_group_name_H-M   'P 1'
_cell_length_a   9.02740976
_cell_length_b   9.02740977
_cell_length_c   9.02740882
_cell_angle_alpha   89.94148377
_cell_angle_beta   89.94148376
_cell_angle_gamma   89.94148800
_symmetry_Int_Tables_number   1
_chemical_formula_structural   Sn3Ir2Se3
_chemical_formula_sum   'Sn12 Ir8 Se12'
_cell_volume   735.67965165
_cell_formula_units_Z   4
loop_
 _symmetry_equiv_pos_site_id
 _symmetry_equiv_pos_as_xyz
  1  'x, y, z'
loop_
 _atom_site_type_symbol
 _atom_site_label
 _atom_site_symmetry_multiplicity
 _atom_site_fract_x
 _atom_site_fract_y
 _atom_site_fract_z
 _atom_site_occupancy
  Sn  Sn0  1  0.50062828  0.34958985  0.16796160  1
  Sn  Sn1  1  0.16796160  0.50062828  0.34958985  1
  Sn  Sn2  1  0.34958985  0.16796160  0.50062828  1
  Sn  Sn3  1  0.49937172  0.65041015  0.83203840  1
  Sn  Sn4  1  0.83203840  0.49937172  0.65041015  1
  Sn  Sn5  1  0.65041015  0.83203840  0.49937172  1
  Sn  Sn6  1  0.99837109  0.84882730  0.33259828  1
  Sn  Sn7  1  0.33259828  0.99837109  0.84882730  1
  Sn  Sn8  1  0.84882730  0.33259828  0.99837109  1
  Sn  Sn9  1  0.00162891  0.15117270  0.66740172  1
  Sn  Sn10  1  0.66740172  0.00162891  0.15117270  1
  Sn  Sn11  1  0.15117270  0.66740172  0.00162891  1
  Ir  Ir12  1  0.24587803  0.24587803  0.24587803  1
  Ir  Ir13  1  0.75412197  0.75412197  0.75412197  1
  Ir  Ir14  1  0.24482019  0.74545726  0.74492213  1
  Ir  Ir15  1  0.74492213  0.24482019  0.74545726  1
  Ir  Ir16  1  0.74545726  0.74492213  0.24482019  1
  Ir  Ir17  1  0.75517981  0.25454274  0.25507787  1
  Ir  Ir18  1  0.25507787  0.75517981  0.25454274  1
  Ir  Ir19  1  0.25454274  0.25507787  0.75517981  1
  Se  Se20  1  0.65299487  0.99858791  0.85193029  1
  Se  Se21  1  0.85193029  0.65299487  0.99858791  1
  Se  Se22  1  0.99858791  0.85193029  0.65299487  1
  Se  Se23  1  0.34700513  0.00141209  0.14806971  1
  Se  Se24  1  0.14806971  0.34700513  0.00141209  1
  Se  Se25  1  0.00141209  0.14806971  0.34700513  1
  Se  Se26  1  0.15250435  0.49962245  0.64900617  1
  Se  Se27  1  0.64900617  0.15250435  0.49962245  1
  Se  Se28  1  0.49962245  0.64900617  0.15250435  1
  Se  Se29  1  0.84749565  0.50037755  0.35099383  1
  Se  Se30  1  0.35099383  0.84749565  0.50037755  1
  Se  Se31  1  0.50037755  0.35099383  0.84749565  1
