# generated using pymatgen
data_Th2Se3
_symmetry_space_group_name_H-M   'P 1'
_cell_length_a   11.32628259
_cell_length_b   4.05383144
_cell_length_c   11.54014448
_cell_angle_alpha   90.00000000
_cell_angle_beta   90.00000000
_cell_angle_gamma   90.00000000
_symmetry_Int_Tables_number   1
_chemical_formula_structural   Th2Se3
_chemical_formula_sum   'Th8 Se12'
_cell_volume   529.86389270
_cell_formula_units_Z   4
loop_
 _symmetry_equiv_pos_site_id
 _symmetry_equiv_pos_as_xyz
  1  'x, y, z'
loop_
 _atom_site_type_symbol
 _atom_site_label
 _atom_site_symmetry_multiplicity
 _atom_site_fract_x
 _atom_site_fract_y
 _atom_site_fract_z
 _atom_site_occupancy
  Th  Th0  1  0.47644768  0.25000000  0.18444726  1
  Th  Th1  1  0.97644768  0.25000000  0.31555274  1
  Th  Th2  1  0.52355232  0.75000000  0.81555274  1
  Th  Th3  1  0.02355232  0.75000000  0.68444726  1
  Th  Th4  1  0.69730948  0.75000000  0.48349442  1
  Th  Th5  1  0.19730948  0.75000000  0.01650558  1
  Th  Th6  1  0.30269052  0.25000000  0.51650558  1
  Th  Th7  1  0.80269052  0.25000000  0.98349442  1
  Se  Se8  1  0.55444438  0.25000000  0.62233446  1
  Se  Se9  1  0.05444438  0.25000000  0.87766554  1
  Se  Se10  1  0.44555562  0.75000000  0.37766554  1
  Se  Se11  1  0.94555562  0.75000000  0.12233446  1
  Se  Se12  1  0.62243518  0.75000000  0.05503817  1
  Se  Se13  1  0.12243518  0.75000000  0.44496183  1
  Se  Se14  1  0.37756482  0.25000000  0.94496183  1
  Se  Se15  1  0.87756482  0.25000000  0.55503817  1
  Se  Se16  1  0.71517975  0.25000000  0.29666740  1
  Se  Se17  1  0.21517975  0.25000000  0.20333260  1
  Se  Se18  1  0.28482025  0.75000000  0.70333260  1
  Se  Se19  1  0.78482025  0.75000000  0.79666740  1
