# generated using pymatgen
data_Pu2Se3
_symmetry_space_group_name_H-M   'P 1'
_cell_length_a   11.30759145
_cell_length_b   4.10033936
_cell_length_c   11.20312826
_cell_angle_alpha   90.00000000
_cell_angle_beta   90.00000000
_cell_angle_gamma   90.00000000
_symmetry_Int_Tables_number   1
_chemical_formula_structural   Pu2Se3
_chemical_formula_sum   'Pu8 Se12'
_cell_volume   519.43261930
_cell_formula_units_Z   4
loop_
 _symmetry_equiv_pos_site_id
 _symmetry_equiv_pos_as_xyz
  1  'x, y, z'
loop_
 _atom_site_type_symbol
 _atom_site_label
 _atom_site_symmetry_multiplicity
 _atom_site_fract_x
 _atom_site_fract_y
 _atom_site_fract_z
 _atom_site_occupancy
  Pu  Pu0  1  0.49344595  0.25000000  0.18645840  1
  Pu  Pu1  1  0.99344595  0.25000000  0.31354160  1
  Pu  Pu2  1  0.50655405  0.75000000  0.81354160  1
  Pu  Pu3  1  0.00655405  0.75000000  0.68645840  1
  Pu  Pu4  1  0.68889084  0.75000000  0.49158463  1
  Pu  Pu5  1  0.18889084  0.75000000  0.00841537  1
  Pu  Pu6  1  0.31110916  0.25000000  0.50841537  1
  Pu  Pu7  1  0.81110916  0.25000000  0.99158463  1
  Se  Se8  1  0.55067182  0.25000000  0.62850913  1
  Se  Se9  1  0.05067182  0.25000000  0.87149087  1
  Se  Se10  1  0.44932818  0.75000000  0.37149087  1
  Se  Se11  1  0.94932818  0.75000000  0.12850913  1
  Se  Se12  1  0.62101021  0.75000000  0.05255985  1
  Se  Se13  1  0.12101021  0.75000000  0.44744015  1
  Se  Se14  1  0.37898979  0.25000000  0.94744015  1
  Se  Se15  1  0.87898979  0.25000000  0.55255985  1
  Se  Se16  1  0.72906132  0.25000000  0.30170514  1
  Se  Se17  1  0.22906132  0.25000000  0.19829486  1
  Se  Se18  1  0.27093868  0.75000000  0.69829486  1
  Se  Se19  1  0.77093868  0.75000000  0.80170514  1
