# generated using pymatgen
data_La3C2I3
_symmetry_space_group_name_H-M   'P 1'
_cell_length_a   10.80441272
_cell_length_b   10.80441272
_cell_length_c   17.87371868
_cell_angle_alpha   90.00000000
_cell_angle_beta   90.00000000
_cell_angle_gamma   111.64163503
_symmetry_Int_Tables_number   1
_chemical_formula_structural   La3C2I3
_chemical_formula_sum   'La24 C16 I24'
_cell_volume   1939.41488819
_cell_formula_units_Z   8
loop_
 _symmetry_equiv_pos_site_id
 _symmetry_equiv_pos_as_xyz
  1  'x, y, z'
loop_
 _atom_site_type_symbol
 _atom_site_label
 _atom_site_symmetry_multiplicity
 _atom_site_fract_x
 _atom_site_fract_y
 _atom_site_fract_z
 _atom_site_occupancy
  La  La0  1  0.15706225  0.89380987  0.00049630  1
  La  La1  1  0.74092006  0.76885885  0.40084827  1
  La  La2  1  0.61504938  0.32319231  0.97884983  1
  La  La3  1  0.63057005  0.36942995  0.75000000  1
  La  La4  1  0.55239188  0.00982713  0.60313673  1
  La  La5  1  0.38495062  0.67680769  0.47884983  1
  La  La6  1  0.76885885  0.74092006  0.59915173  1
  La  La7  1  0.47055248  0.97444646  0.38134100  1
  La  La8  1  0.97444646  0.47055248  0.61865900  1
  La  La9  1  0.52944752  0.02555354  0.88134100  1
  La  La10  1  0.44760812  0.99017287  0.10313673  1
  La  La11  1  0.10619013  0.84293775  0.49950370  1
  La  La12  1  0.32319231  0.61504938  0.02115017  1
  La  La13  1  0.00982713  0.55239188  0.39686327  1
  La  La14  1  0.83033532  0.16966468  0.75000000  1
  La  La15  1  0.23114115  0.25907994  0.09915173  1
  La  La16  1  0.25907994  0.23114115  0.90084827  1
  La  La17  1  0.99017287  0.44760812  0.89686327  1
  La  La18  1  0.67680769  0.38495062  0.52115017  1
  La  La19  1  0.16966468  0.83033532  0.25000000  1
  La  La20  1  0.84293775  0.10619013  0.50049630  1
  La  La21  1  0.02555354  0.52944752  0.11865900  1
  La  La22  1  0.36942995  0.63057005  0.25000000  1
  La  La23  1  0.89380987  0.15706225  -0.00049630  1
  C  C24  1  0.28085911  0.72461637  0.34974788  1
  C  C25  1  0.90323887  0.59077496  0.52890268  1
  C  C26  1  0.65649997  0.85311100  0.52334824  1
  C  C27  1  0.59077496  0.90323887  0.47109732  1
  C  C28  1  0.71914089  0.27538363  0.84974788  1
  C  C29  1  0.78091779  0.22530529  0.90433720  1
  C  C30  1  0.21908221  0.77469471  0.40433720  1
  C  C31  1  0.27538363  0.71914089  0.15025212  1
  C  C32  1  0.72461637  0.28085911  0.65025212  1
  C  C33  1  0.34350003  0.14688900  0.02334824  1
  C  C34  1  0.85311100  0.65649997  0.47665176  1
  C  C35  1  0.14688900  0.34350003  0.97665176  1
  C  C36  1  0.22530529  0.78091779  0.09566280  1
  C  C37  1  0.09676113  0.40922504  0.02890268  1
  C  C38  1  0.40922504  0.09676113  0.97109732  1
  C  C39  1  0.77469471  0.21908221  0.59566280  1
  I  I40  1  0.36218789  0.09860862  0.74320369  1
  I  I41  1  0.86333918  0.63103613  0.99343674  1
  I  I42  1  0.90139138  0.63781211  0.75679631  1
  I  I43  1  0.50121125  0.51886889  0.88039779  1
  I  I44  1  0.14189890  0.36980822  0.75411340  1
  I  I45  1  0.36896387  0.13666082  0.50656326  1
  I  I46  1  0.48113111  0.49878875  0.61960221  1
  I  I47  1  0.98693135  0.98023034  0.13284280  1
  I  I48  1  0.49878875  0.48113111  0.38039779  1
  I  I49  1  0.13666082  0.36896387  0.49343674  1
  I  I50  1  0.74567378  0.26010345  0.36716943  1
  I  I51  1  0.98023034  0.98693135  0.86715720  1
  I  I52  1  0.01976966  0.01306865  0.36715720  1
  I  I53  1  0.26010345  0.74567378  0.63283057  1
  I  I54  1  0.73989655  0.25432622  0.13283057  1
  I  I55  1  0.25432622  0.73989655  0.86716943  1
  I  I56  1  0.63103613  0.86333918  0.00656326  1
  I  I57  1  0.09860862  0.36218789  0.25679631  1
  I  I58  1  0.01306865  0.01976966  0.63284280  1
  I  I59  1  0.36980822  0.14189890  0.24588660  1
  I  I60  1  0.63781211  0.90139138  0.24320369  1
  I  I61  1  0.63019178  0.85810110  0.74588660  1
  I  I62  1  0.51886889  0.50121125  0.11960221  1
  I  I63  1  0.85810110  0.63019178  0.25411340  1
