# generated using pymatgen
data_HoAsSe
_symmetry_space_group_name_H-M   'P 1'
_cell_length_a   3.87903652
_cell_length_b   3.92812747
_cell_length_c   17.40092576
_cell_angle_alpha   90.00000000
_cell_angle_beta   90.00000000
_cell_angle_gamma   90.00000000
_symmetry_Int_Tables_number   1
_chemical_formula_structural   HoAsSe
_chemical_formula_sum   'Ho4 As4 Se4'
_cell_volume   265.14399459
_cell_formula_units_Z   4
loop_
 _symmetry_equiv_pos_site_id
 _symmetry_equiv_pos_as_xyz
  1  'x, y, z'
loop_
 _atom_site_type_symbol
 _atom_site_label
 _atom_site_symmetry_multiplicity
 _atom_site_fract_x
 _atom_site_fract_y
 _atom_site_fract_z
 _atom_site_occupancy
  Ho  Ho0  1  0.75000000  0.73108230  0.63985208  1
  Ho  Ho1  1  0.25000000  0.26891770  0.36014792  1
  Ho  Ho2  1  0.75000000  0.76891770  0.13985208  1
  Ho  Ho3  1  0.25000000  0.23108230  0.86014792  1
  As  As4  1  0.25000000  0.70910657  0.99789877  1
  As  As5  1  0.75000000  0.29089343  0.00210123  1
  As  As6  1  0.25000000  0.79089343  0.49789877  1
  As  As7  1  0.75000000  0.20910657  0.50210123  1
  Se  Se8  1  0.75000000  0.73389388  0.81248548  1
  Se  Se9  1  0.25000000  0.26610612  0.18751452  1
  Se  Se10  1  0.75000000  0.76610612  0.31248548  1
  Se  Se11  1  0.25000000  0.23389388  0.68751452  1
