# generated using pymatgen
data_KPbO2
_symmetry_space_group_name_H-M   'P 1'
_cell_length_a   7.00248063
_cell_length_b   7.50842233
_cell_length_c   12.74602232
_cell_angle_alpha   105.49712229
_cell_angle_beta   90.80497418
_cell_angle_gamma   117.37068670
_symmetry_Int_Tables_number   1
_chemical_formula_structural   KPbO2
_chemical_formula_sum   'K8 Pb8 O16'
_cell_volume   566.11033451
_cell_formula_units_Z   8
loop_
 _symmetry_equiv_pos_site_id
 _symmetry_equiv_pos_as_xyz
  1  'x, y, z'
loop_
 _atom_site_type_symbol
 _atom_site_label
 _atom_site_symmetry_multiplicity
 _atom_site_fract_x
 _atom_site_fract_y
 _atom_site_fract_z
 _atom_site_occupancy
  K  K0  1  0.48558072  0.74033195  0.73461790  1
  K  K1  1  0.26382352  0.26390680  0.01213273  1
  K  K2  1  0.01313861  0.75958648  0.76564009  1
  K  K3  1  0.98686263  0.24041549  0.23435809  1
  K  K4  1  0.23554043  0.23591329  0.48818229  1
  K  K5  1  0.76446327  0.76408946  0.51181768  1
  K  K6  1  0.51442304  0.25966403  0.26538186  1
  K  K7  1  0.73617400  0.73609017  0.98786908  1
  Pb  Pb8  1  0.23781048  0.72713611  0.47113338  1
  Pb  Pb9  1  0.76219327  0.27287668  0.52886766  1
  Pb  Pb10  1  0.73689194  0.22754913  0.97177204  1
  Pb  Pb11  1  0.26309963  0.77243393  0.02822402  1
  Pb  Pb12  1  0.51398356  0.75335208  0.25400599  1
  Pb  Pb13  1  0.48600902  0.24664384  0.74599402  1
  Pb  Pb14  1  0.01231600  0.25304970  0.75444616  1
  Pb  Pb15  1  0.98768676  0.74695269  0.24555323  1
  O  O16  1  0.85401564  0.94275045  0.34465572  1
  O  O17  1  0.14598567  0.05725254  0.65534563  1
  O  O18  1  0.11199854  0.94168631  0.13769372  1
  O  O19  1  0.88800453  0.05830909  0.86230516  1
  O  O20  1  0.16648255  0.57489011  0.14193216  1
  O  O21  1  0.83351845  0.42511152  0.85806825  1
  O  O22  1  0.38937343  0.55844156  0.36180876  1
  O  O23  1  0.61062329  0.44155934  0.63819245  1
  O  O24  1  0.92454546  0.56178279  0.35582504  1
  O  O25  1  0.07545419  0.43821733  0.64417620  1
  O  O26  1  0.57661030  0.93817280  0.14364340  1
  O  O27  1  0.64745975  0.55745409  0.15490015  1
  O  O28  1  0.33474038  0.92525183  0.35777407  1
  O  O29  1  0.66526259  0.07475063  0.64222696  1
  O  O30  1  0.35254036  0.44254794  0.84510136  1
  O  O31  1  0.42338899  0.06182782  0.85635575  1
