# generated using pymatgen
data_K2MnSnSe4
_symmetry_space_group_name_H-M   'P 1'
_cell_length_a   10.65795946
_cell_length_b   10.65795946
_cell_length_c   8.35645084
_cell_angle_alpha   90.00000000
_cell_angle_beta   90.00000000
_cell_angle_gamma   90.00000000
_symmetry_Int_Tables_number   1
_chemical_formula_structural   K2MnSnSe4
_chemical_formula_sum   'K8 Mn4 Sn4 Se16'
_cell_volume   949.22679822
_cell_formula_units_Z   4
loop_
 _symmetry_equiv_pos_site_id
 _symmetry_equiv_pos_as_xyz
  1  'x, y, z'
loop_
 _atom_site_type_symbol
 _atom_site_label
 _atom_site_symmetry_multiplicity
 _atom_site_fract_x
 _atom_site_fract_y
 _atom_site_fract_z
 _atom_site_occupancy
  K  K0  1  0.25274913  0.75274913  0.75000000  1
  K  K1  1  0.50000000  0.50000000  0.50000000  1
  K  K2  1  0.00000000  0.00000000  0.00000000  1
  K  K3  1  0.74725087  0.24725087  0.75000000  1
  K  K4  1  0.00000000  0.50000000  0.25000000  1
  K  K5  1  0.50000000  0.00000000  0.75000000  1
  K  K6  1  0.24725087  0.25274913  0.25000000  1
  K  K7  1  0.75274913  0.74725087  0.25000000  1
  Mn  Mn8  1  0.50000000  0.50000000  0.00000000  1
  Mn  Mn9  1  0.00000000  0.00000000  0.50000000  1
  Mn  Mn10  1  0.00000000  0.50000000  0.75000000  1
  Mn  Mn11  1  0.50000000  0.00000000  0.25000000  1
  Sn  Sn12  1  0.27895976  0.77895976  0.25000000  1
  Sn  Sn13  1  0.72104024  0.22104024  0.25000000  1
  Sn  Sn14  1  0.22104024  0.27895976  0.75000000  1
  Sn  Sn15  1  0.77895976  0.72104024  0.75000000  1
  Se  Se16  1  0.28810898  0.56753863  0.10872236  1
  Se  Se17  1  0.97111230  0.69546893  0.92887784  1
  Se  Se18  1  0.47111230  0.80453107  0.42887784  1
  Se  Se19  1  0.71189102  0.43246137  0.10872236  1
  Se  Se20  1  0.02888770  0.30453107  0.92887784  1
  Se  Se21  1  0.69546893  0.02888770  0.07112216  1
  Se  Se22  1  0.52888770  0.19546893  0.42887784  1
  Se  Se23  1  0.80453107  0.52888770  0.57112216  1
  Se  Se24  1  0.21189102  0.06753863  0.60872236  1
  Se  Se25  1  0.78810898  0.93246137  0.60872236  1
  Se  Se26  1  0.19546893  0.47111230  0.57112216  1
  Se  Se27  1  0.56753863  0.71189102  0.89127764  1
  Se  Se28  1  0.43246137  0.28810898  0.89127764  1
  Se  Se29  1  0.93246137  0.21189102  0.39127764  1
  Se  Se30  1  0.30453107  0.97111230  0.07112216  1
  Se  Se31  1  0.06753863  0.78810898  0.39127764  1
