# generated using pymatgen
data_NaSbF4
_symmetry_space_group_name_H-M   'P 1'
_cell_length_a   5.45371241
_cell_length_b   7.97903241
_cell_length_c   8.40981270
_cell_angle_alpha   94.99084624
_cell_angle_beta   89.99989221
_cell_angle_gamma   90.00597425
_symmetry_Int_Tables_number   1
_chemical_formula_structural   NaSbF4
_chemical_formula_sum   'Na4 Sb4 F16'
_cell_volume   364.56844302
_cell_formula_units_Z   4
loop_
 _symmetry_equiv_pos_site_id
 _symmetry_equiv_pos_as_xyz
  1  'x, y, z'
loop_
 _atom_site_type_symbol
 _atom_site_label
 _atom_site_symmetry_multiplicity
 _atom_site_fract_x
 _atom_site_fract_y
 _atom_site_fract_z
 _atom_site_occupancy
  Na  Na0  1  0.79132588  0.86584467  0.33684611  1
  Na  Na1  1  0.29117735  0.13429563  0.16318656  1
  Na  Na2  1  0.70877313  0.86571012  0.83681316  1
  Na  Na3  1  0.20864069  0.13414294  0.66315122  1
  Sb  Sb4  1  0.28890011  0.66498524  0.13452693  1
  Sb  Sb5  1  0.78874834  0.33508494  0.36552975  1
  Sb  Sb6  1  0.71110159  0.33497813  0.86550203  1
  Sb  Sb7  1  0.21120221  0.66495232  0.63444818  1
  F  F8  1  0.56939216  0.82563839  0.08441211  1
  F  F9  1  0.61196299  0.11817251  0.33808102  1
  F  F10  1  0.01355892  0.39296633  0.72552405  1
  F  F11  1  0.93087686  0.82575468  0.58444292  1
  F  F12  1  0.88789435  0.11805694  0.83825277  1
  F  F13  1  0.98644381  0.60700498  0.27452127  1
  F  F14  1  0.43061007  0.17431704  0.91558572  1
  F  F15  1  0.42892157  0.72327703  0.34881123  1
  F  F16  1  0.07127174  0.72311040  0.84875673  1
  F  F17  1  0.51366475  0.60681498  0.77430361  1
  F  F18  1  0.11215058  0.88193427  0.16185896  1
  F  F19  1  0.92875947  0.27700057  0.15125770  1
  F  F20  1  0.48630145  0.39318336  0.22562203  1
  F  F21  1  0.06911185  0.17433422  0.41555841  1
  F  F22  1  0.38806121  0.88183408  0.66181564  1
  F  F23  1  0.57114690  0.27660623  0.65119190  1
