# generated using pymatgen
data_CsReBr4
_symmetry_space_group_name_H-M   'P 1'
_cell_length_a   10.37276456
_cell_length_b   12.69702635
_cell_length_c   13.21969811
_cell_angle_alpha   90.00000000
_cell_angle_beta   90.00000000
_cell_angle_gamma   90.00000000
_symmetry_Int_Tables_number   1
_chemical_formula_structural   CsReBr4
_chemical_formula_sum   'Cs8 Re8 Br32'
_cell_volume   1741.07740262
_cell_formula_units_Z   8
loop_
 _symmetry_equiv_pos_site_id
 _symmetry_equiv_pos_as_xyz
  1  'x, y, z'
loop_
 _atom_site_type_symbol
 _atom_site_label
 _atom_site_symmetry_multiplicity
 _atom_site_fract_x
 _atom_site_fract_y
 _atom_site_fract_z
 _atom_site_occupancy
  Cs  Cs0  1  0.33289980  0.69613592  0.36494416  1
  Cs  Cs1  1  0.83289980  0.80386408  0.63505584  1
  Cs  Cs2  1  0.66710020  0.19613592  0.13505584  1
  Cs  Cs3  1  0.16710020  0.30386408  0.86494416  1
  Cs  Cs4  1  0.66710020  0.30386408  0.63505584  1
  Cs  Cs5  1  0.16710020  0.19613592  0.36494416  1
  Cs  Cs6  1  0.33289980  0.80386408  0.86494416  1
  Cs  Cs7  1  0.83289980  0.69613592  0.13505584  1
  Re  Re8  1  0.55870066  0.01396049  0.43134517  1
  Re  Re9  1  0.05870066  0.48603951  0.56865483  1
  Re  Re10  1  0.44129934  0.51396049  0.06865483  1
  Re  Re11  1  0.94129934  0.98603951  0.93134517  1
  Re  Re12  1  0.44129934  0.98603951  0.56865483  1
  Re  Re13  1  0.94129934  0.51396049  0.43134517  1
  Re  Re14  1  0.55870066  0.48603951  0.93134517  1
  Re  Re15  1  0.05870066  0.01396049  0.06865483  1
  Br  Br16  1  0.52895775  0.20550620  0.39372433  1
  Br  Br17  1  0.02895775  0.29449380  0.60627567  1
  Br  Br18  1  0.47104225  0.70550620  0.10627567  1
  Br  Br19  1  0.97104225  0.79449380  0.89372433  1
  Br  Br20  1  0.47104225  0.79449380  0.60627567  1
  Br  Br21  1  0.97104225  0.70550620  0.39372433  1
  Br  Br22  1  0.52895775  0.29449380  0.89372433  1
  Br  Br23  1  0.02895775  0.20550620  0.10627567  1
  Br  Br24  1  0.41192084  0.98427774  0.28443458  1
  Br  Br25  1  0.91192084  0.51572226  0.71556542  1
  Br  Br26  1  0.58807916  0.48427774  0.21556542  1
  Br  Br27  1  0.08807916  0.01572226  0.78443458  1
  Br  Br28  1  0.58807916  0.01572226  0.71556542  1
  Br  Br29  1  0.08807916  0.48427774  0.28443458  1
  Br  Br30  1  0.41192084  0.51572226  0.78443458  1
  Br  Br31  1  0.91192084  0.98427774  0.21556542  1
  Br  Br32  1  0.27674368  0.06119437  0.00415848  1
  Br  Br33  1  0.77674368  0.43880563  0.99584152  1
  Br  Br34  1  0.72325632  0.56119437  0.49584152  1
  Br  Br35  1  0.22325632  0.93880563  0.50415848  1
  Br  Br36  1  0.72325632  0.93880563  0.99584152  1
  Br  Br37  1  0.22325632  0.56119437  0.00415848  1
  Br  Br38  1  0.27674368  0.43880563  0.50415848  1
  Br  Br39  1  0.77674368  0.06119437  0.49584152  1
  Br  Br40  1  0.15177920  0.83948699  0.11189753  1
  Br  Br41  1  0.65177920  0.66051301  0.88810247  1
  Br  Br42  1  0.84822080  0.33948699  0.38810247  1
  Br  Br43  1  0.34822080  0.16051301  0.61189753  1
  Br  Br44  1  0.84822080  0.16051301  0.88810247  1
  Br  Br45  1  0.34822080  0.33948699  0.11189753  1
  Br  Br46  1  0.15177920  0.66051301  0.61189753  1
  Br  Br47  1  0.65177920  0.83948699  0.38810247  1
