# generated using pymatgen
data_Nb2O2F3
_symmetry_space_group_name_H-M   'P 1'
_cell_length_a   5.22934870
_cell_length_b   5.76813152
_cell_length_c   7.04528086
_cell_angle_alpha   109.02716492
_cell_angle_beta   111.64952519
_cell_angle_gamma   90.01324390
_symmetry_Int_Tables_number   1
_chemical_formula_structural   Nb2O2F3
_chemical_formula_sum   'Nb4 O4 F6'
_cell_volume   184.96375563
_cell_formula_units_Z   2
loop_
 _symmetry_equiv_pos_site_id
 _symmetry_equiv_pos_as_xyz
  1  'x, y, z'
loop_
 _atom_site_type_symbol
 _atom_site_label
 _atom_site_symmetry_multiplicity
 _atom_site_fract_x
 _atom_site_fract_y
 _atom_site_fract_z
 _atom_site_occupancy
  Nb  Nb0  1  0.40486776  0.31255501  0.31893005  1
  Nb  Nb1  1  0.59513224  0.68744499  0.68106995  1
  Nb  Nb2  1  0.08489816  0.18755559  0.68110906  1
  Nb  Nb3  1  0.91510184  0.81244441  0.31889094  1
  O  O4  1  0.24258767  0.64055295  0.40192804  1
  O  O5  1  0.75741233  0.35944705  0.59807196  1
  O  O6  1  0.15989090  0.14065920  0.40210412  1
  O  O7  1  0.84010910  0.85934080  0.59789588  1
  F  F8  1  0.10594787  0.25012878  0.00049028  1
  F  F9  1  0.89405213  0.74987122  0.99950972  1
  F  F10  1  0.55284190  0.96886052  0.20481678  1
  F  F11  1  0.44715810  0.03113948  0.79518322  1
  F  F12  1  0.65354728  0.46851352  0.20438806  1
  F  F13  1  0.34645272  0.53148648  0.79561194  1
