# generated using pymatgen
data_K3(CuO2)2
_symmetry_space_group_name_H-M   'P 1'
_cell_length_a   5.41541000
_cell_length_b   5.41541000
_cell_length_c   10.85954779
_cell_angle_alpha   90.00000000
_cell_angle_beta   90.00000000
_cell_angle_gamma   111.48817047
_symmetry_Int_Tables_number   1
_chemical_formula_structural   K3(CuO2)2
_chemical_formula_sum   'K6 Cu4 O8'
_cell_volume   296.33820000
_cell_formula_units_Z   2
loop_
 _symmetry_equiv_pos_site_id
 _symmetry_equiv_pos_as_xyz
  1  'x, y, z'
loop_
 _atom_site_type_symbol
 _atom_site_label
 _atom_site_symmetry_multiplicity
 _atom_site_fract_x
 _atom_site_fract_y
 _atom_site_fract_z
 _atom_site_occupancy
  K  K0  1  0.65297990  0.34702010  0.56732357  1
  K  K1  1  0.34702010  0.65297990  0.43267643  1
  K  K2  1  0.65297990  0.34702010  0.93267643  1
  K  K3  1  0.34702010  0.65297990  0.06732357  1
  K  K4  1  0.30370479  0.69629521  0.75000000  1
  K  K5  1  0.69629521  0.30370479  0.25000000  1
  Cu  Cu6  1  0.00000000  0.00000000  0.50000000  1
  Cu  Cu7  1  0.00000000  0.00000000  0.00000000  1
  Cu  Cu8  1  0.93697751  0.06302249  0.75000000  1
  Cu  Cu9  1  0.06302249  0.93697751  0.25000000  1
  O  O10  1  0.85877355  0.73191573  0.38662817  1
  O  O11  1  0.73191573  0.85877355  0.61337183  1
  O  O12  1  0.85877355  0.73191573  0.11337183  1
  O  O13  1  0.73191573  0.85877355  0.88662817  1
  O  O14  1  0.14122645  0.26808427  0.61337183  1
  O  O15  1  0.26808427  0.14122645  0.38662817  1
  O  O16  1  0.14122645  0.26808427  0.88662817  1
  O  O17  1  0.26808427  0.14122645  0.11337183  1
