# generated using pymatgen
data_Tl4PbSe3
_symmetry_space_group_name_H-M   'P 1'
_cell_length_a   8.55506407
_cell_length_b   8.55506407
_cell_length_c   13.07682448
_cell_angle_alpha   90.00000000
_cell_angle_beta   90.00000000
_cell_angle_gamma   90.00000000
_symmetry_Int_Tables_number   1
_chemical_formula_structural   Tl4PbSe3
_chemical_formula_sum   'Tl16 Pb4 Se12'
_cell_volume   957.08129232
_cell_formula_units_Z   4
loop_
 _symmetry_equiv_pos_site_id
 _symmetry_equiv_pos_as_xyz
  1  'x, y, z'
loop_
 _atom_site_type_symbol
 _atom_site_label
 _atom_site_symmetry_multiplicity
 _atom_site_fract_x
 _atom_site_fract_y
 _atom_site_fract_z
 _atom_site_occupancy
  Tl  Tl0  1  0.32844518  0.38270237  0.40378669  1
  Tl  Tl1  1  0.67155482  0.38270237  0.90378669  1
  Tl  Tl2  1  0.32844518  0.61729763  0.90378669  1
  Tl  Tl3  1  0.67155482  0.61729763  0.40378669  1
  Tl  Tl4  1  0.88270237  0.82844518  0.90378669  1
  Tl  Tl5  1  0.11729763  0.82844518  0.40378669  1
  Tl  Tl6  1  0.88270237  0.17155482  0.40378669  1
  Tl  Tl7  1  0.11729763  0.17155482  0.90378669  1
  Tl  Tl8  1  0.17155482  0.11729763  0.59621331  1
  Tl  Tl9  1  0.82844518  0.11729763  0.09621331  1
  Tl  Tl10  1  0.17155482  0.88270237  0.09621331  1
  Tl  Tl11  1  0.82844518  0.88270237  0.59621331  1
  Tl  Tl12  1  0.61729763  0.67155482  0.09621331  1
  Tl  Tl13  1  0.38270237  0.67155482  0.59621331  1
  Tl  Tl14  1  0.61729763  0.32844518  0.59621331  1
  Tl  Tl15  1  0.38270237  0.32844518  0.09621331  1
  Pb  Pb16  1  0.00000000  0.50000000  0.21130197  1
  Pb  Pb17  1  0.00000000  0.50000000  0.71130197  1
  Pb  Pb18  1  0.50000000  0.00000000  0.78869803  1
  Pb  Pb19  1  0.50000000  0.00000000  0.28869803  1
  Se  Se20  1  0.00000000  0.50000000  0.49545334  1
  Se  Se21  1  0.00000000  0.50000000  0.99545334  1
  Se  Se22  1  0.50000000  0.00000000  0.50454666  1
  Se  Se23  1  0.50000000  0.00000000  0.00454666  1
  Se  Se24  1  0.32793164  0.67206836  0.25000000  1
  Se  Se25  1  0.67206836  0.67206836  0.75000000  1
  Se  Se26  1  0.32793164  0.32793164  0.75000000  1
  Se  Se27  1  0.67206836  0.32793164  0.25000000  1
  Se  Se28  1  0.17206836  0.82793164  0.75000000  1
  Se  Se29  1  0.82793164  0.82793164  0.25000000  1
  Se  Se30  1  0.17206836  0.17206836  0.25000000  1
  Se  Se31  1  0.82793164  0.17206836  0.75000000  1
