# generated using pymatgen
data_Ta(CoTe)2
_symmetry_space_group_name_H-M   'P 1'
_cell_length_a   6.50413752
_cell_length_b   6.53957208
_cell_length_c   18.68197810
_cell_angle_alpha   90.00000000
_cell_angle_beta   90.00000000
_cell_angle_gamma   90.00000000
_symmetry_Int_Tables_number   1
_chemical_formula_structural   Ta(CoTe)2
_chemical_formula_sum   'Ta8 Co16 Te16'
_cell_volume   794.62441517
_cell_formula_units_Z   8
loop_
 _symmetry_equiv_pos_site_id
 _symmetry_equiv_pos_as_xyz
  1  'x, y, z'
loop_
 _atom_site_type_symbol
 _atom_site_label
 _atom_site_symmetry_multiplicity
 _atom_site_fract_x
 _atom_site_fract_y
 _atom_site_fract_z
 _atom_site_occupancy
  Ta  Ta0  1  0.34945498  0.75000000  0.72513639  1
  Ta  Ta1  1  0.65054502  0.25000000  0.27486361  1
  Ta  Ta2  1  0.65030904  0.75000000  0.26386988  1
  Ta  Ta3  1  0.84945498  0.25000000  0.77486361  1
  Ta  Ta4  1  0.15030904  0.25000000  0.23613012  1
  Ta  Ta5  1  0.84969096  0.75000000  0.76386988  1
  Ta  Ta6  1  0.34969096  0.25000000  0.73613012  1
  Ta  Ta7  1  0.15054502  0.75000000  0.22513639  1
  Co  Co8  1  0.04476646  0.46203716  0.68433722  1
  Co  Co9  1  0.04476646  0.03796284  0.68433722  1
  Co  Co10  1  0.65458983  0.46165783  0.68417465  1
  Co  Co11  1  0.45523354  0.46203716  0.18433722  1
  Co  Co12  1  0.65458983  0.03834217  0.68417465  1
  Co  Co13  1  0.54476646  0.96203716  0.81566278  1
  Co  Co14  1  0.54476646  0.53796284  0.81566278  1
  Co  Co15  1  0.95523354  0.96203716  0.31566278  1
  Co  Co16  1  0.15458983  0.53834217  0.81582535  1
  Co  Co17  1  0.34541017  0.96165783  0.31582535  1
  Co  Co18  1  0.84541017  0.03834217  0.18417465  1
  Co  Co19  1  0.84541017  0.46165783  0.18417465  1
  Co  Co20  1  0.45523354  0.03796284  0.18433722  1
  Co  Co21  1  0.15458983  0.96165783  0.81582535  1
  Co  Co22  1  0.95523354  0.53796284  0.31566278  1
  Co  Co23  1  0.34541017  0.53834217  0.31582535  1
  Te  Te24  1  0.15140421  0.25000000  0.38522603  1
  Te  Te25  1  0.65140421  0.75000000  0.11477397  1
  Te  Te26  1  0.84947177  0.50172999  0.89964628  1
  Te  Te27  1  0.34859579  0.25000000  0.88522603  1
  Te  Te28  1  0.35030840  0.75000000  0.90479249  1
  Te  Te29  1  0.14969160  0.75000000  0.40479249  1
  Te  Te30  1  0.64969160  0.25000000  0.09520751  1
  Te  Te31  1  0.65052823  0.50172999  0.39964628  1
  Te  Te32  1  0.84859579  0.75000000  0.61477397  1
  Te  Te33  1  0.34947177  0.49827001  0.60035372  1
  Te  Te34  1  0.65052823  0.99827001  0.39964628  1
  Te  Te35  1  0.84947177  0.99827001  0.89964628  1
  Te  Te36  1  0.34947177  0.00172999  0.60035372  1
  Te  Te37  1  0.15052823  0.00172999  0.10035372  1
  Te  Te38  1  0.15052823  0.49827001  0.10035372  1
  Te  Te39  1  0.85030840  0.25000000  0.59520751  1
