# generated using pymatgen
data_Cs3FeSe3
_symmetry_space_group_name_H-M   'P 1'
_cell_length_a   10.92554685
_cell_length_b   10.92554685
_cell_length_c   14.08449820
_cell_angle_alpha   90.00000000
_cell_angle_beta   90.00000000
_cell_angle_gamma   139.60250280
_symmetry_Int_Tables_number   1
_chemical_formula_structural   Cs3FeSe3
_chemical_formula_sum   'Cs12 Fe4 Se12'
_cell_volume   1089.58423537
_cell_formula_units_Z   4
loop_
 _symmetry_equiv_pos_site_id
 _symmetry_equiv_pos_as_xyz
  1  'x, y, z'
loop_
 _atom_site_type_symbol
 _atom_site_label
 _atom_site_symmetry_multiplicity
 _atom_site_fract_x
 _atom_site_fract_y
 _atom_site_fract_z
 _atom_site_occupancy
  Cs  Cs0  1  0.86414785  0.86414785  0.68025670  1
  Cs  Cs1  1  0.13585215  0.13585215  0.31974330  1
  Cs  Cs2  1  0.63585215  0.63585215  0.18025670  1
  Cs  Cs3  1  0.36414785  0.36414785  0.81974330  1
  Cs  Cs4  1  0.17780282  0.52875667  0.12549860  1
  Cs  Cs5  1  0.47124333  0.82219718  0.87450140  1
  Cs  Cs6  1  0.97124333  0.32219718  0.62549860  1
  Cs  Cs7  1  0.67780282  0.02875667  0.37450140  1
  Cs  Cs8  1  0.82219718  0.47124333  0.87450140  1
  Cs  Cs9  1  0.52875667  0.17780282  0.12549860  1
  Cs  Cs10  1  0.02875667  0.67780282  0.37450140  1
  Cs  Cs11  1  0.32219718  0.97124333  0.62549860  1
  Fe  Fe12  1  0.91957498  0.08042502  0.00000000  1
  Fe  Fe13  1  0.41957498  0.58042502  0.50000000  1
  Fe  Fe14  1  0.08042502  0.91957498  0.00000000  1
  Fe  Fe15  1  0.58042502  0.41957498  0.50000000  1
  Se  Se16  1  0.28903013  0.28903013  0.56600598  1
  Se  Se17  1  0.71096987  0.71096987  0.43399402  1
  Se  Se18  1  0.21096987  0.21096987  0.06600598  1
  Se  Se19  1  0.78903013  0.78903013  0.93399402  1
  Se  Se20  1  0.71672510  0.00876713  0.11802026  1
  Se  Se21  1  0.99123287  0.28327490  0.88197974  1
  Se  Se22  1  0.49123287  0.78327490  0.61802026  1
  Se  Se23  1  0.21672510  0.50876713  0.38197974  1
  Se  Se24  1  0.28327490  0.99123287  0.88197974  1
  Se  Se25  1  0.00876713  0.71672510  0.11802026  1
  Se  Se26  1  0.50876713  0.21672510  0.38197974  1
  Se  Se27  1  0.78327490  0.49123287  0.61802026  1
