# generated using pymatgen
data_La3RuI3
_symmetry_space_group_name_H-M   'P 1'
_cell_length_a   4.41069967
_cell_length_b   9.54338891
_cell_length_c   12.52364080
_cell_angle_alpha   93.24146029
_cell_angle_beta   90.00000000
_cell_angle_gamma   90.00000000
_symmetry_Int_Tables_number   1
_chemical_formula_structural   La3RuI3
_chemical_formula_sum   'La6 Ru2 I6'
_cell_volume   526.31449659
_cell_formula_units_Z   2
loop_
 _symmetry_equiv_pos_site_id
 _symmetry_equiv_pos_as_xyz
  1  'x, y, z'
loop_
 _atom_site_type_symbol
 _atom_site_label
 _atom_site_symmetry_multiplicity
 _atom_site_fract_x
 _atom_site_fract_y
 _atom_site_fract_z
 _atom_site_occupancy
  La  La0  1  0.75000000  0.31633530  0.12140683  1
  La  La1  1  0.25000000  0.68366470  0.87859317  1
  La  La2  1  0.25000000  0.11685017  0.33036554  1
  La  La3  1  0.75000000  0.88314983  0.66963446  1
  La  La4  1  0.25000000  0.09535699  0.89675784  1
  La  La5  1  0.75000000  0.90464301  0.10324216  1
  Ru  Ru6  1  0.25000000  0.11383452  0.13014970  1
  Ru  Ru7  1  0.75000000  0.88616548  0.86985030  1
  I  I8  1  0.25000000  0.13208750  0.61958057  1
  I  I9  1  0.75000000  0.86791250  0.38041843  1
  I  I10  1  0.75000000  0.36847303  0.38152808  1
  I  I11  1  0.25000000  0.63152697  0.61847192  1
  I  I12  1  0.25000000  0.60644127  0.13692804  1
  I  I13  1  0.75000000  0.39355873  0.86307196  1
