# generated using pymatgen
data_La3PI3
_symmetry_space_group_name_H-M   'P 1'
_cell_length_a   10.86957726
_cell_length_b   10.86903996
_cell_length_c   10.86984576
_cell_angle_alpha   109.47108382
_cell_angle_beta   109.47277803
_cell_angle_gamma   109.47066992
_symmetry_Int_Tables_number   1
_chemical_formula_structural   La3PI3
_chemical_formula_sum   'La12 P4 I12'
_cell_volume   988.55461372
_cell_formula_units_Z   4
loop_
 _symmetry_equiv_pos_site_id
 _symmetry_equiv_pos_as_xyz
  1  'x, y, z'
loop_
 _atom_site_type_symbol
 _atom_site_label
 _atom_site_symmetry_multiplicity
 _atom_site_fract_x
 _atom_site_fract_y
 _atom_site_fract_z
 _atom_site_occupancy
  La  La0  1  0.26825920  0.01827359  0.03652171  1
  La  La1  1  0.03650891  0.26824108  0.01825435  1
  La  La2  1  0.48171603  0.75001547  0.01828157  1
  La  La3  1  0.74999557  0.23173633  0.26825280  1
  La  La4  1  0.01824956  0.03652088  0.26824255  1
  La  La5  1  0.01836860  0.48183094  0.74999248  1
  La  La6  1  0.23175345  0.26827300  0.74999574  1
  La  La7  1  0.26826761  0.75001034  0.23172943  1
  La  La8  1  0.23174895  0.46346696  0.48173657  1
  La  La9  1  0.46347302  0.48173156  0.23173720  1
  La  La10  1  0.74999664  0.01825453  0.48173048  1
  La  La11  1  0.48173935  0.23176104  0.46347161  1
  P  P12  1  -0.00000304  0.24999996  0.49999337  1
  P  P13  1  0.24999607  0.49999181  -0.00000447  1
  P  P14  1  0.50000177  0.00002205  0.25000362  1
  P  P15  1  0.24999004  0.24999714  0.24998993  1
  I  I16  1  0.75968191  0.74017192  0.24997419  1
  I  I17  1  0.50979868  0.24999632  0.99022071  1
  I  I18  1  0.24999319  0.99018123  0.50980894  1
  I  I19  1  0.51946957  0.50970412  0.75968759  1
  I  I20  1  0.99022441  0.98049457  0.74022440  1
  I  I21  1  0.74031262  0.99029001  0.98049074  1
  I  I22  1  0.50976408  0.75979210  0.51959981  1
  I  I23  1  0.75976072  0.51948852  0.50976523  1
  I  I24  1  0.99019732  0.50979078  0.25001609  1
  I  I25  1  0.98039359  0.74021789  0.99020866  1
  I  I26  1  0.25000491  0.75973672  0.74026870  1
  I  I27  1  0.74033628  0.25000613  0.75980601  1
