# generated using pymatgen
data_La3SbI3
_symmetry_space_group_name_H-M   'P 1'
_cell_length_a   11.21495927
_cell_length_b   11.21478668
_cell_length_c   11.21494768
_cell_angle_alpha   109.46947406
_cell_angle_beta   109.46893367
_cell_angle_gamma   109.47305960
_symmetry_Int_Tables_number   1
_chemical_formula_structural   La3SbI3
_chemical_formula_sum   'La12 Sb4 I12'
_cell_volume   1085.86501311
_cell_formula_units_Z   4
loop_
 _symmetry_equiv_pos_site_id
 _symmetry_equiv_pos_as_xyz
  1  'x, y, z'
loop_
 _atom_site_type_symbol
 _atom_site_label
 _atom_site_symmetry_multiplicity
 _atom_site_fract_x
 _atom_site_fract_y
 _atom_site_fract_z
 _atom_site_occupancy
  La  La0  1  0.25970051  0.00976104  0.01940900  1
  La  La1  1  0.01945310  0.25968304  0.00974169  1
  La  La2  1  0.49025100  0.74996023  0.00970418  1
  La  La3  1  0.75001085  0.24020763  0.25982524  1
  La  La4  1  0.00976848  0.01950262  0.25976310  1
  La  La5  1  0.00972870  0.49028467  0.75001982  1
  La  La6  1  0.24035046  0.25982370  0.74999625  1
  La  La7  1  0.25977801  0.75009688  0.24031651  1
  La  La8  1  0.24031771  0.48056756  0.49028586  1
  La  La9  1  0.48054638  0.49027420  0.24025715  1
  La  La10  1  0.74992275  0.00963973  0.49027554  1
  La  La11  1  0.49015846  0.24013638  0.48026775  1
  Sb  Sb12  1  0.00002811  0.24996903  0.50004385  1
  Sb  Sb13  1  0.25000861  0.49998789  0.00002748  1
  Sb  Sb14  1  0.49998005  -0.00005078  0.24992871  1
  Sb  Sb15  1  0.25005477  0.24997589  0.25001288  1
  I  I16  1  0.75757531  0.74238383  0.24998186  1
  I  I17  1  0.50762097  0.25003282  0.99240662  1
  I  I18  1  0.25009791  0.99240782  0.50749376  1
  I  I19  1  0.51517522  0.50756888  0.75756236  1
  I  I20  1  0.99239675  0.98480212  0.74237418  1
  I  I21  1  0.74236276  0.99242007  0.98484178  1
  I  I22  1  0.50745602  0.75756973  0.51515029  1
  I  I23  1  0.75746893  0.51520253  0.50761913  1
  I  I24  1  0.99236495  0.50754746  0.24993786  1
  I  I25  1  0.98497259  0.74258579  0.99267667  1
  I  I26  1  0.25001243  0.75762307  0.74243027  1
  I  I27  1  0.74244122  0.25003718  0.75765119  1
