# generated using pymatgen
data_Nb4SiTe4
_symmetry_space_group_name_H-M   'P 1'
_cell_length_a   4.86105463
_cell_length_b   10.97126983
_cell_length_c   19.03426313
_cell_angle_alpha   90.00000000
_cell_angle_beta   90.00000000
_cell_angle_gamma   90.00000000
_symmetry_Int_Tables_number   1
_chemical_formula_structural   Nb4SiTe4
_chemical_formula_sum   'Nb16 Si4 Te16'
_cell_volume   1015.13421734
_cell_formula_units_Z   4
loop_
 _symmetry_equiv_pos_site_id
 _symmetry_equiv_pos_as_xyz
  1  'x, y, z'
loop_
 _atom_site_type_symbol
 _atom_site_label
 _atom_site_symmetry_multiplicity
 _atom_site_fract_x
 _atom_site_fract_y
 _atom_site_fract_z
 _atom_site_occupancy
  Nb  Nb0  1  0.50000000  0.56354525  0.38332678  1
  Nb  Nb1  1  0.50000000  0.43645475  0.61667322  1
  Nb  Nb2  1  0.50000000  0.06354525  0.11667322  1
  Nb  Nb3  1  0.50000000  0.93645475  0.88332678  1
  Nb  Nb4  1  0.50000000  0.70308307  0.53594152  1
  Nb  Nb5  1  0.50000000  0.29691693  0.46405848  1
  Nb  Nb6  1  0.50000000  0.20308307  0.96405848  1
  Nb  Nb7  1  0.50000000  0.79691693  0.03594152  1
  Nb  Nb8  1  0.00000000  0.68815548  0.44267281  1
  Nb  Nb9  1  0.00000000  0.31184452  0.55732719  1
  Nb  Nb10  1  0.00000000  0.18815548  0.05732719  1
  Nb  Nb11  1  0.00000000  0.81184452  0.94267281  1
  Nb  Nb12  1  0.00000000  0.40134041  0.39188887  1
  Nb  Nb13  1  0.00000000  0.59865959  0.60811113  1
  Nb  Nb14  1  0.00000000  0.90134041  0.10811113  1
  Nb  Nb15  1  0.00000000  0.09865959  0.89188887  1
  Si  Si16  1  0.24998500  0.50000000  0.50000000  1
  Si  Si17  1  0.75001500  0.00000000  0.00000000  1
  Si  Si18  1  0.75001500  0.50000000  0.50000000  1
  Si  Si19  1  0.24998500  0.00000000  0.00000000  1
  Te  Te20  1  0.00000000  0.84550327  0.56187047  1
  Te  Te21  1  0.00000000  0.15449673  0.43812953  1
  Te  Te22  1  0.00000000  0.34550327  0.93812953  1
  Te  Te23  1  0.00000000  0.65449673  0.06187047  1
  Te  Te24  1  0.50000000  0.33236853  0.31613911  1
  Te  Te25  1  0.50000000  0.66763147  0.68386089  1
  Te  Te26  1  0.50000000  0.83236853  0.18386089  1
  Te  Te27  1  0.50000000  0.16763147  0.81613911  1
  Te  Te28  1  0.50000000  0.82131200  0.40252922  1
  Te  Te29  1  0.50000000  0.17868800  0.59747078  1
  Te  Te30  1  0.50000000  0.32131200  0.09747078  1
  Te  Te31  1  0.50000000  0.67868800  0.90252922  1
  Te  Te32  1  0.00000000  0.60646070  0.30056039  1
  Te  Te33  1  0.00000000  0.39353930  0.69943961  1
  Te  Te34  1  0.00000000  0.10646070  0.19943961  1
  Te  Te35  1  0.00000000  0.89353930  0.80056039  1
