# generated using pymatgen
data_Ta4SiTe4
_symmetry_space_group_name_H-M   'P 1'
_cell_length_a   4.80599289
_cell_length_b   10.96878469
_cell_length_c   19.05049247
_cell_angle_alpha   90.00000000
_cell_angle_beta   90.00000000
_cell_angle_gamma   90.00000000
_symmetry_Int_Tables_number   1
_chemical_formula_structural   Ta4SiTe4
_chemical_formula_sum   'Ta16 Si4 Te16'
_cell_volume   1004.26387947
_cell_formula_units_Z   4
loop_
 _symmetry_equiv_pos_site_id
 _symmetry_equiv_pos_as_xyz
  1  'x, y, z'
loop_
 _atom_site_type_symbol
 _atom_site_label
 _atom_site_symmetry_multiplicity
 _atom_site_fract_x
 _atom_site_fract_y
 _atom_site_fract_z
 _atom_site_occupancy
  Ta  Ta0  1  0.00000000  0.59739319  0.60675619  1
  Ta  Ta1  1  0.00000000  0.40260681  0.39324381  1
  Ta  Ta2  1  0.00000000  0.09739319  0.89324381  1
  Ta  Ta3  1  0.00000000  0.90260681  0.10675619  1
  Ta  Ta4  1  0.00000000  0.31405801  0.55631992  1
  Ta  Ta5  1  0.00000000  0.68594199  0.44368008  1
  Ta  Ta6  1  0.00000000  0.81405801  0.94368008  1
  Ta  Ta7  1  0.00000000  0.18594199  0.05631992  1
  Ta  Ta8  1  0.50000000  0.29940222  0.46437991  1
  Ta  Ta9  1  0.50000000  0.70059778  0.53562009  1
  Ta  Ta10  1  0.50000000  0.79940222  0.03562009  1
  Ta  Ta11  1  0.50000000  0.20059778  0.96437991  1
  Ta  Ta12  1  0.50000000  0.43715550  0.61515024  1
  Ta  Ta13  1  0.50000000  0.56284450  0.38484976  1
  Ta  Ta14  1  0.50000000  0.93715550  0.88484976  1
  Ta  Ta15  1  0.50000000  0.06284450  0.11515024  1
  Si  Si16  1  0.25002852  0.50000000  0.50000000  1
  Si  Si17  1  0.74997148  -0.00000000  0.00000000  1
  Si  Si18  1  0.74997148  0.50000000  0.50000000  1
  Si  Si19  1  0.25002852  -0.00000000  0.00000000  1
  Te  Te20  1  0.00000000  0.39294199  0.69895060  1
  Te  Te21  1  0.00000000  0.60705801  0.30104940  1
  Te  Te22  1  0.00000000  0.89294199  0.80104940  1
  Te  Te23  1  0.00000000  0.10705801  0.19895060  1
  Te  Te24  1  0.50000000  0.17861169  0.59710849  1
  Te  Te25  1  0.50000000  0.82138831  0.40289151  1
  Te  Te26  1  0.50000000  0.67861169  0.90289151  1
  Te  Te27  1  0.50000000  0.32138831  0.09710849  1
  Te  Te28  1  0.50000000  0.66739051  0.68376333  1
  Te  Te29  1  0.50000000  0.33260949  0.31623667  1
  Te  Te30  1  0.50000000  0.16739051  0.81623667  1
  Te  Te31  1  0.50000000  0.83260949  0.18376333  1
  Te  Te32  1  0.00000000  0.34541115  0.93790077  1
  Te  Te33  1  0.00000000  0.65458885  0.06209923  1
  Te  Te34  1  0.00000000  0.84541115  0.56209923  1
  Te  Te35  1  0.00000000  0.15458885  0.43790077  1
