# generated using pymatgen
data_Ba3Sb2O
_symmetry_space_group_name_H-M   'P 1'
_cell_length_a   5.15242008
_cell_length_b   12.56559003
_cell_length_c   12.84353491
_cell_angle_alpha   90.00000000
_cell_angle_beta   90.00000000
_cell_angle_gamma   90.00000000
_symmetry_Int_Tables_number   1
_chemical_formula_structural   Ba3Sb2O
_chemical_formula_sum   'Ba12 Sb8 O4'
_cell_volume   831.53152868
_cell_formula_units_Z   4
loop_
 _symmetry_equiv_pos_site_id
 _symmetry_equiv_pos_as_xyz
  1  'x, y, z'
loop_
 _atom_site_type_symbol
 _atom_site_label
 _atom_site_symmetry_multiplicity
 _atom_site_fract_x
 _atom_site_fract_y
 _atom_site_fract_z
 _atom_site_occupancy
  Ba  Ba0  1  0.50000000  0.24409076  0.75955124  1
  Ba  Ba1  1  0.50000000  0.75590924  0.24044876  1
  Ba  Ba2  1  0.50000000  0.74409076  0.74044876  1
  Ba  Ba3  1  0.50000000  0.25590924  0.25955124  1
  Ba  Ba4  1  -0.00000000  0.18027718  0.98362566  1
  Ba  Ba5  1  0.00000000  0.81972282  0.01637434  1
  Ba  Ba6  1  -0.00000000  0.68027718  0.51637434  1
  Ba  Ba7  1  0.00000000  0.31972282  0.48362566  1
  Ba  Ba8  1  0.00000000  0.47145965  0.82771948  1
  Ba  Ba9  1  -0.00000000  0.52854035  0.17228052  1
  Ba  Ba10  1  -0.00000000  0.97145965  0.67228052  1
  Ba  Ba11  1  -0.00000000  0.02854035  0.32771948  1
  Sb  Sb12  1  0.50000000  0.98842932  0.88837221  1
  Sb  Sb13  1  0.50000000  0.48842932  0.61162779  1
  Sb  Sb14  1  0.50000000  0.51157068  0.38837221  1
  Sb  Sb15  1  0.50000000  0.01157068  0.11162779  1
  Sb  Sb16  1  0.50000000  0.11198419  0.52123159  1
  Sb  Sb17  1  0.50000000  0.88801581  0.47876841  1
  Sb  Sb18  1  0.50000000  0.61198419  0.97876841  1
  Sb  Sb19  1  0.50000000  0.38801581  0.02123159  1
  O  O20  1  -0.00000000  0.27000710  0.80532021  1
  O  O21  1  0.00000000  0.72999290  0.19467979  1
  O  O22  1  -0.00000000  0.77000710  0.69467979  1
  O  O23  1  0.00000000  0.22999290  0.30532021  1
